examples/Feeder_1/LV_N1_F1_EXP_POWERS.CSV
Element, Terminal, P(kW), Q(kvar),  P_Normal, Q_Normal, P_Emergency, Q_Emergency
"Line.LINE1"            ,   1,        55.9,        18.2,         0.0,         0.0,         0.0,         0.0
"Line.LINE1"            ,   2,       -55.9,       -18.2
"Line.LINE2"            ,   1,        55.9,        18.2,         0.0,         0.0,         0.0,         0.0
"Line.LINE2"            ,   2,       -55.9,       -18.2
"Line.LINE3"            ,   1,        55.9,        18.2,         0.0,         0.0,         0.0,         0.0
"Line.LINE3"            ,   2,       -55.8,       -18.2
"Line.LINE4"            ,   1,        55.8,        18.2,         0.0,         0.0,         0.0,         0.0
"Line.LINE4"            ,   2,       -55.8,       -18.2
"Line.LINE5"            ,   1,        55.8,        18.2,         0.0,         0.0,         0.0,         0.0
"Line.LINE5"            ,   2,       -55.8,       -18.2
"Line.LINE6"            ,   1,        55.8,        18.2,         0.0,         0.0,         0.0,         0.0
"Line.LINE6"            ,   2,       -55.8,       -18.2
"Line.LINE7"            ,   1,        55.8,        18.2,         0.0,         0.0,         0.0,         0.0
"Line.LINE7"            ,   2,       -55.7,       -18.2
"Line.LINE8"            ,   1,        55.7,        18.2,         0.0,         0.0,         0.0,         0.0
"Line.LINE8"            ,   2,       -55.7,       -18.2
"Line.LINE9"            ,   1,        55.7,        18.2,         0.0,         0.0,         0.0,         0.0
"Line.LINE9"            ,   2,       -55.7,       -18.2
"Line.LINE10"           ,   1,        55.7,        18.2,         0.0,         0.0,         0.0,         0.0
"Line.LINE10"           ,   2,       -55.7,       -18.2
"Line.LINE11"           ,   1,        55.7,        18.2,         0.0,         0.0,         0.0,         0.0
"Line.LINE11"           ,   2,       -55.7,       -18.2
"Line.LINE12"           ,   1,        55.7,        18.2,         0.0,         0.0,         0.0,         0.0
"Line.LINE12"           ,   2,       -55.7,       -18.2
"Line.LINE13"           ,   1,        55.7,        18.2,         0.0,         0.0,         0.0,         0.0
"Line.LINE13"           ,   2,       -55.7,       -18.2
"Line.LINE14"           ,   1,        55.7,        18.2,         0.0,         0.0,         0.0,         0.0
"Line.LINE14"           ,   2,       -55.7,       -18.2
"Line.LINE15"           ,   1,         0.0,        -0.0,         0.0,         0.0,         0.0,         0.0
"Line.LINE15"           ,   2,        -0.0,         0.0
"Line.LINE16"           ,   1,        55.7,        18.2,         0.0,         0.0,         0.0,         0.0
"Line.LINE16"           ,   2,       -55.7,       -18.2
"Line.LINE17"           ,   1,         0.0,        -0.0,         0.0,         0.0,         0.0,         0.0
"Line.LINE17"           ,   2,        -0.0,         0.0
"Line.LINE18"           ,   1,        55.7,        18.2,         0.0,         0.0,         0.0,         0.0
"Line.LINE18"           ,   2,       -55.7,       -18.2
"Line.LINE19"           ,   1,         0.0,         0.0,         0.0,         0.0,         0.0,         0.0
"Line.LINE19"           ,   2,        -0.0,        -0.0
"Line.LINE20"           ,   1,        55.7,        18.2,         0.0,         0.0,         0.0,         0.0
"Line.LINE20"           ,   2,       -55.7,       -18.2
"Line.LINE21"           ,   1,         0.0,         0.0,         0.0,         0.0,         0.0,         0.0
"Line.LINE21"           ,   2,        -0.0,        -0.0
"Line.LINE22"           ,   1,        55.7,        18.2,         0.0,         0.0,         0.0,         0.0
"Line.LINE22"           ,   2,       -55.7,       -18.2
"Line.LINE23"           ,   1,         0.0,         0.0,         0.0,         0.0,         0.0,         0.0
"Line.LINE23"           ,   2,        -0.0,        -0.0
"Line.LINE24"           ,   1,        55.7,        18.2,         0.0,         0.0,         0.0,         0.0
"Line.LINE24"           ,   2,       -55.7,       -18.2
"Line.LINE25"           ,   1,         0.0,         0.0,         0.0,         0.0,         0.0,         0.0
"Line.LINE25"           ,   2,        -0.0,        -0.0
"Line.LINE26"           ,   1,         2.0,         0.7,         0.0,         0.0,         0.0,         0.0
"Line.LINE26"           ,   2,        -2.0,        -0.7
"Line.LINE27"           ,   1,        53.7,        17.5,         0.0,         0.0,         0.0,         0.0
"Line.LINE27"           ,   2,       -53.6,       -17.5
"Line.LINE28"           ,   1,         0.0,         0.0,         0.0,         0.0,         0.0,         0.0
"Line.LINE28"           ,   2,        -0.0,        -0.0
"Line.LINE29"           ,   1,         1.0,         0.3,         0.0,         0.0,         0.0,         0.0
"Line.LINE29"           ,   2,        -1.0,        -0.3
"Line.LINE30"           ,   1,         1.0,         0.3,         0.0,         0.0,         0.0,         0.0
"Line.LINE30"           ,   2,        -1.0,        -0.3
"Line.LINE31"           ,   1,        53.6,        17.5,         0.0,         0.0,         0.0,         0.0
"Line.LINE31"           ,   2,       -53.6,       -17.5
"Line.LINE32"           ,   1,         0.0,         0.0,         0.0,         0.0,         0.0,         0.0
"Line.LINE32"           ,   2,        -0.0,        -0.0
"Line.LINE33"           ,   1,         1.0,         0.3,         0.0,         0.0,         0.0,         0.0
"Line.LINE33"           ,   2,        -1.0,        -0.3
"Line.LINE34"           ,   1,         1.0,         0.3,         0.0,         0.0,         0.0,         0.0
"Line.LINE34"           ,   2,        -1.0,        -0.3
"Line.LINE35"           ,   1,         2.0,         0.7,         0.0,         0.0,         0.0,         0.0
"Line.LINE35"           ,   2,        -2.0,        -0.7
"Line.LINE36"           ,   1,        51.5,        16.9,         0.0,         0.0,         0.0,         0.0
"Line.LINE36"           ,   2,       -51.5,       -16.9
"Line.LINE37"           ,   1,         0.0,         0.0,         0.0,         0.0,         0.0,         0.0
"Line.LINE37"           ,   2,        -0.0,        -0.0
"Line.LINE38"           ,   1,         1.0,         0.3,         0.0,         0.0,         0.0,         0.0
"Line.LINE38"           ,   2,        -1.0,        -0.3
"Line.LINE39"           ,   1,         1.0,         0.3,         0.0,         0.0,         0.0,         0.0
"Line.LINE39"           ,   2,        -1.0,        -0.3
"Line.LINE40"           ,   1,         1.0,         0.3,         0.0,         0.0,         0.0,         0.0
"Line.LINE40"           ,   2,        -1.0,        -0.3
"Line.LINE41"           ,   1,        51.5,        16.9,         0.0,         0.0,         0.0,         0.0
"Line.LINE41"           ,   2,       -51.4,       -16.8
"Line.LINE42"           ,   1,         0.0,        -0.0,         0.0,         0.0,         0.0,         0.0
"Line.LINE42"           ,   2,        -0.0,         0.0
"Line.LINE43"           ,   1,         0.0,         0.0,         0.0,         0.0,         0.0,         0.0
"Line.LINE43"           ,   2,        -0.0,        -0.0
"Line.LINE44"           ,   1,         1.0,         0.3,         0.0,         0.0,         0.0,         0.0
"Line.LINE44"           ,   2,        -1.0,        -0.3
"Line.LINE45"           ,   1,         1.0,         0.3,         0.0,         0.0,         0.0,         0.0
"Line.LINE45"           ,   2,        -1.0,        -0.3
"Line.LINE46"           ,   1,         1.0,         0.3,         0.0,         0.0,         0.0,         0.0
"Line.LINE46"           ,   2,        -1.0,        -0.3
"Line.LINE47"           ,   1,        51.4,        16.8,         0.0,         0.0,         0.0,         0.0
"Line.LINE47"           ,   2,       -51.4,       -16.8
"Line.LINE48"           ,   1,         0.0,        -0.0,         0.0,         0.0,         0.0,         0.0
"Line.LINE48"           ,   2,        -0.0,         0.0
"Line.LINE49"           ,   1,         0.0,        -0.0,         0.0,         0.0,         0.0,         0.0
"Line.LINE49"           ,   2,        -0.0,         0.0
"Line.LINE50"           ,   1,         1.0,         0.3,         0.0,         0.0,         0.0,         0.0
"Line.LINE50"           ,   2,        -1.0,        -0.3
"Line.LINE51"           ,   1,         1.0,         0.3,         0.0,         0.0,         0.0,         0.0
"Line.LINE51"           ,   2,        -1.0,        -0.3
"Line.LINE52"           ,   1,        51.4,        16.8,         0.0,         0.0,         0.0,         0.0
"Line.LINE52"           ,   2,       -51.4,       -16.8
"Line.LINE53"           ,   1,         0.0,         0.0,         0.0,         0.0,         0.0,         0.0
"Line.LINE53"           ,   2,        -0.0,        -0.0
"Line.LINE54"           ,   1,        -0.0,        -0.0,         0.0,         0.0,         0.0,         0.0
"Line.LINE54"           ,   2,         0.0,         0.0
"Line.LINE55"           ,   1,         0.0,        -0.0,         0.0,         0.0,         0.0,         0.0
"Line.LINE55"           ,   2,        -0.0,         0.0
"Line.LINE56"           ,   1,         1.0,         0.3,         0.0,         0.0,         0.0,         0.0
"Line.LINE56"           ,   2,        -1.0,        -0.3
"Line.LINE57"           ,   1,         1.0,         0.3,         0.0,         0.0,         0.0,         0.0
"Line.LINE57"           ,   2,        -1.0,        -0.3
"Line.LINE58"           ,   1,        51.4,        16.8,         0.0,         0.0,         0.0,         0.0
"Line.LINE58"           ,   2,       -51.4,       -16.8
"Line.LINE59"           ,   1,         0.0,        -0.0,         0.0,         0.0,         0.0,         0.0
"Line.LINE59"           ,   2,        -0.0,         0.0
"Line.LINE60"           ,   1,        -0.0,         0.0,         0.0,         0.0,         0.0,         0.0
"Line.LINE60"           ,   2,         0.0,        -0.0
"Line.LINE61"           ,   1,         0.0,        -0.0,         0.0,         0.0,         0.0,         0.0
"Line.LINE61"           ,   2,        -0.0,         0.0
"Line.LINE62"           ,   1,         1.0,         0.3,         0.0,         0.0,         0.0,         0.0
"Line.LINE62"           ,   2,        -1.0,        -0.3
"Line.LINE63"           ,   1,         1.0,         0.3,         0.0,         0.0,         0.0,         0.0
"Line.LINE63"           ,   2,        -1.0,        -0.3
"Line.LINE64"           ,   1,        49.4,        16.2,         0.0,         0.0,         0.0,         0.0
"Line.LINE64"           ,   2,       -49.4,       -16.2
"Line.LINE65"           ,   1,         2.0,         0.7,         0.0,         0.0,         0.0,         0.0
"Line.LINE65"           ,   2,        -2.0,        -0.7
"Line.LINE66"           ,   1,         0.0,         0.0,         0.0,         0.0,         0.0,         0.0
"Line.LINE66"           ,   2,        -0.0,        -0.0
"Line.LINE67"           ,   1,         0.0,        -0.0,         0.0,         0.0,         0.0,         0.0
"Line.LINE67"           ,   2,        -0.0,         0.0
"Line.LINE68"           ,   1,         0.0,         0.0,         0.0,         0.0,         0.0,         0.0
"Line.LINE68"           ,   2,        -0.0,        -0.0
"Line.LINE69"           ,   1,         1.0,         0.3,         0.0,         0.0,         0.0,         0.0
"Line.LINE69"           ,   2,        -1.0,        -0.3
"Line.LINE70"           ,   1,         1.0,         0.3,         0.0,         0.0,         0.0,         0.0
"Line.LINE70"           ,   2,        -1.0,        -0.3
"Line.LINE71"           ,   1,        49.4,        16.2,         0.0,         0.0,         0.0,         0.0
"Line.LINE71"           ,   2,       -49.3,       -16.2
"Line.LINE72"           ,   1,         1.0,         0.3,         0.0,         0.0,         0.0,         0.0
"Line.LINE72"           ,   2,        -1.0,        -0.3
"Line.LINE73"           ,   1,         1.0,         0.3,         0.0,         0.0,         0.0,         0.0
"Line.LINE73"           ,   2,        -1.0,        -0.3
"Line.LINE74"           ,   1,         0.0,        -0.0,         0.0,         0.0,         0.0,         0.0
"Line.LINE74"           ,   2,        -0.0,         0.0
"Line.LINE75"           ,   1,         0.0,        -0.0,         0.0,         0.0,         0.0,         0.0
"Line.LINE75"           ,   2,        -0.0,         0.0
"Line.LINE76"           ,   1,         0.0,        -0.0,         0.0,         0.0,         0.0,         0.0
"Line.LINE76"           ,   2,        -0.0,         0.0
"Line.LINE77"           ,   1,         1.0,         0.3,         0.0,         0.0,         0.0,         0.0
"Line.LINE77"           ,   2,        -1.0,        -0.3
"Line.LINE78"           ,   1,        49.3,        16.2,         0.0,         0.0,         0.0,         0.0
"Line.LINE78"           ,   2,       -49.3,       -16.2
"Line.LINE79"           ,   1,         0.0,         0.0,         0.0,         0.0,         0.0,         0.0
"Line.LINE79"           ,   2,        -0.0,        -0.0
"Line.LINE80"           ,   1,         0.0,        -0.0,         0.0,         0.0,         0.0,         0.0
"Line.LINE80"           ,   2,        -0.0,         0.0
"Line.LINE81"           ,   1,         0.0,         0.0,         0.0,         0.0,         0.0,         0.0
"Line.LINE81"           ,   2,        -0.0,        -0.0
"Line.LINE82"           ,   1,         1.0,         0.3,         0.0,         0.0,         0.0,         0.0
"Line.LINE82"           ,   2,        -1.0,        -0.3
"Line.LINE83"           ,   1,        49.3,        16.2,         0.0,         0.0,         0.0,         0.0
"Line.LINE83"           ,   2,       -49.3,       -16.2
"Line.LINE84"           ,   1,         0.0,         0.0,         0.0,         0.0,         0.0,         0.0
"Line.LINE84"           ,   2,        -0.0,        -0.0
"Line.LINE85"           ,   1,         0.0,        -0.0,         0.0,         0.0,         0.0,         0.0
"Line.LINE85"           ,   2,        -0.0,         0.0
"Line.LINE86"           ,   1,         0.0,         0.0,         0.0,         0.0,         0.0,         0.0
"Line.LINE86"           ,   2,        -0.0,        -0.0
"Line.LINE87"           ,   1,        49.3,        16.2,         0.0,         0.0,         0.0,         0.0
"Line.LINE87"           ,   2,       -49.3,       -16.2
"Line.LINE88"           ,   1,        -0.0,         0.0,         0.0,         0.0,         0.0,         0.0
"Line.LINE88"           ,   2,         0.0,        -0.0
"Line.LINE89"           ,   1,         0.0,        -0.0,         0.0,         0.0,         0.0,         0.0
"Line.LINE89"           ,   2,        -0.0,         0.0
"Line.LINE90"           ,   1,         0.0,         0.0,         0.0,         0.0,         0.0,         0.0
"Line.LINE90"           ,   2,        -0.0,        -0.0
"Line.LINE91"           ,   1,        49.3,        16.2,         0.0,         0.0,         0.0,         0.0
"Line.LINE91"           ,   2,       -49.3,       -16.2
"Line.LINE92"           ,   1,        -0.0,        -0.0,         0.0,         0.0,         0.0,         0.0
"Line.LINE92"           ,   2,         0.0,         0.0
"Line.LINE93"           ,   1,         0.0,        -0.0,         0.0,         0.0,         0.0,         0.0
"Line.LINE93"           ,   2,        -0.0,         0.0
"Line.LINE94"           ,   1,        49.3,        16.2,         0.0,         0.0,         0.0,         0.0
"Line.LINE94"           ,   2,       -49.3,       -16.2
"Line.LINE95"           ,   1,         0.0,         0.0,         0.0,         0.0,         0.0,         0.0
"Line.LINE95"           ,   2,        -0.0,        -0.0
"Line.LINE96"           ,   1,         0.0,         0.0,         0.0,         0.0,         0.0,         0.0
"Line.LINE96"           ,   2,        -0.0,        -0.0
"Line.LINE97"           ,   1,        49.3,        16.2,         0.0,         0.0,         0.0,         0.0
"Line.LINE97"           ,   2,       -49.3,       -16.2
"Line.LINE98"           ,   1,         0.0,         0.0,         0.0,         0.0,         0.0,         0.0
"Line.LINE98"           ,   2,        -0.0,        -0.0
"Line.LINE99"           ,   1,        -0.0,         0.0,         0.0,         0.0,         0.0,         0.0
"Line.LINE99"           ,   2,         0.0,        -0.0
"Line.LINE100"          ,   1,        49.3,        16.2,         0.0,         0.0,         0.0,         0.0
"Line.LINE100"          ,   2,       -49.3,       -16.2
...
"Transformer.TR1"       ,   1,        55.9,        18.3,         0.0,         0.0,         0.0,         0.0
"Transformer.TR1"       ,   2,       -55.9,       -18.2
"Load.LOAD1"            ,   1,         1.0,         0.3
"Load.LOAD2"            ,   1,         1.0,         0.3
"Load.LOAD3"            ,   1,         1.0,         0.3
"Load.LOAD4"            ,   1,         1.0,         0.3
"Load.LOAD5"            ,   1,         1.0,         0.3
"Load.LOAD6"            ,   1,         1.0,         0.3
"Load.LOAD7"            ,   1,         1.0,         0.3
"Load.LOAD8"            ,   1,         1.0,         0.3
"Load.LOAD9"            ,   1,         1.0,         0.3
"Load.LOAD10"           ,   1,         1.0,         0.3
"Load.LOAD11"           ,   1,         1.0,         0.3
"Load.LOAD12"           ,   1,         1.0,         0.3
"Load.LOAD13"           ,   1,         1.0,         0.3
"Load.LOAD14"           ,   1,         1.0,         0.3
"Load.LOAD15"           ,   1,         1.0,         0.3
"Load.LOAD16"           ,   1,         1.0,         0.3
"Load.LOAD17"           ,   1,         1.0,         0.3
"Load.LOAD18"           ,   1,         1.0,         0.3
"Load.LOAD19"           ,   1,         1.0,         0.3
"Load.LOAD20"           ,   1,         1.0,         0.3
"Load.LOAD21"           ,   1,         1.0,         0.3
"Load.LOAD22"           ,   1,         1.0,         0.3
"Load.LOAD23"           ,   1,         1.0,         0.3
"Load.LOAD24"           ,   1,         1.0,         0.3
"Load.LOAD25"           ,   1,         1.0,         0.3
"Load.LOAD26"           ,   1,         1.0,         0.3
"Load.LOAD27"           ,   1,         1.0,         0.3
"Load.LOAD28"           ,   1,         1.0,         0.3
"Load.LOAD29"           ,   1,         1.0,         0.3
"Load.LOAD30"           ,   1,         1.0,         0.3
"Load.LOAD31"           ,   1,         1.0,         0.3
"Load.LOAD32"           ,   1,         1.0,         0.3
"Load.LOAD33"           ,   1,         1.0,         0.3
"Load.LOAD34"           ,   1,         1.0,         0.3
"Load.LOAD35"           ,   1,         1.0,         0.3
"Load.LOAD36"           ,   1,         1.0,         0.3
"Load.LOAD37"           ,   1,         1.0,         0.3
"Load.LOAD38"           ,   1,         1.0,         0.3
"Load.LOAD39"           ,   1,         1.0,         0.3
"Load.LOAD40"           ,   1,         1.0,         0.3
"Load.LOAD41"           ,   1,         1.0,         0.3
"Load.LOAD42"           ,   1,         1.0,         0.3
"Load.LOAD43"           ,   1,         1.0,         0.3
"Load.LOAD44"           ,   1,         1.0,         0.3
"Load.LOAD45"           ,   1,         1.0,         0.3
"Load.LOAD46"           ,   1,         1.0,         0.3
"Load.LOAD47"           ,   1,         1.0,         0.3
"Load.LOAD48"           ,   1,         1.0,         0.3
"Load.LOAD49"           ,   1,         1.0,         0.3
"Load.LOAD50"           ,   1,         1.0,         0.3
"Load.LOAD51"           ,   1,         1.0,         0.3
"Load.LOAD52"           ,   1,         1.0,         0.3
"Load.LOAD53"           ,   1,         1.0,         0.3
"Load.LOAD54"           ,   1,         1.0,         0.3
"Load.LOAD55"           ,   1,         1.0,         0.3
